% Simulation Title and Mesh File
TITLE= "Laminar Flow Over a Rectangle"
MESH_FILENAME= mesh_rectangle.su2
MESH_FORMAT= SU2

% Governing Equations
SOLVER= INC_NAVIER_STOKES
KIND_TURB_MODEL= NONE  % No turbulence model for laminar flow

% Physical Properties
VISCOUS= YES
FLUID_MODEL= WATER
DENSITY_MODEL= CONSTANT
DENSITY_REF= 1000.0     % Density of water (kg/m³)
VISCOSITY_MODEL= CONSTANT
VISCOSITY_REF= 0.001    % Dynamic viscosity of water (Pa·s)

% Boundary Conditions
MARKER_INLET= (inlet, 1.0, 0.0)   % Uniform velocity in x-direction
MARKER_OUTLET= (outlet, 0.0)      % Zero pressure at outlet
MARKER_WALL= (walls, noslip)      % No-slip condition on walls

% Numerical Method
CFL_NUMBER= 10.0
TIME_MARCHING= STEADY
LINEAR_SOLVER= FGMRES
LINEAR_SOLVER_PREC= ILU
LINEAR_SOLVER_ITER= 50
CONV_CRITERIA= RESIDUAL
RESIDUAL_REDUCTION= 1E-6
EXT_ITER= 10000  % Maximum number of iterations

% Output Settings
CONV_FILENAME= convergence.dat
OUTPUT_FORMAT= TECPLOT
VOLUME_OUTPUT= ( VELOCITY, PRESSURE )
SURFACE_OUTPUT= ( VELOCITY, PRESSURE, WALL_SURFACE_FORCE )

% Restart Options (if needed)
RESTART_SOL= NO
