%%%%%%%%%%%%%%%%%%%%%%%%%%%%%%%%%%%%%%%%%%%%%%%%%%%%%%%%%%%%%%%%%%%%%%%%%%%%%%%%
%                                                                              %
% SU2 configuration file                                                       %
% Case description: 2D Incompressible Flow over a Rectangular Obstacle         %
% Author: [Your Name]                                                          %
% Institution: [Your Institution]                                              %
% Date: [Today's Date]                                                         %
% File Version: 1.0                                                            %
%                                                                              %
%%%%%%%%%%%%%%%%%%%%%%%%%%%%%%%%%%%%%%%%%%%%%%%%%%%%%%%%%%%%%%%%%%%%%%%%%%%%%%%%

% ------------------------- Problem Definition ------------------------------%
%
% Physical governing equations (NAVIER_STOKES, EULER, etc.)
PHYSICAL_PROBLEM= NAVIER_STOKES

% Regime type (INCOMPRESSIBLE, COMPRESSIBLE)
REGIME_TYPE= INCOMPRESSIBLE

% Mathematical problem (DIRECT, CONTINUOUS_ADJOINT)
MATH_PROBLEM= DIRECT

% Restart solution (NO, YES)
RESTART_SOL= NO

% System of measurements (SI, US)
SYSTEM_MEASUREMENTS= SI

% ---------------------- Mesh and Input/Output Files ------------------------%
%
% Mesh input file
MESH_FILENAME= mesh_rectangle.su2

% Mesh format (SU2, CGNS)
MESH_FORMAT= SU2

% Output file format (PARAVIEW, TECPLOT, etc.)
OUTPUT_FILES= (PARAVIEW, SURFACE_CSV)

% ---------------------- Simulation Parameters ------------------------------%
%
% Viscosity model (SUTHERLAND, CONSTANT_VISCOSITY)
VISCOSITY_MODEL= CONSTANT_VISCOSITY

% Constant viscosity coefficient (for CONSTANT_VISCOSITY model) (kg/(m·s))
MU_CONSTANT= 1.0e-3

% Density (kg/m^3)
FREESTREAM_DENSITY= 1.0

% Free-stream velocity components (m/s)
FREESTREAM_VELOCITY= (1.0, 0.0, 0.0)

% ---------------------- Boundary Conditions --------------------------------%
%
% Inlet boundary marker(s) with specified velocity
% Format: (marker name, temperature, velocity magnitude, flow_direction_x, flow_direction_y, flow_direction_z)
MARKER_INLET= ( inlet, 300.0, 1.0, 1.0, 0.0, 0.0 )

% Outlet boundary marker(s) with specified pressure
% Format: (marker name, static pressure)
MARKER_OUTLET= ( outlet, 0.0 )

% Wall boundary marker(s) with no-slip condition
% Format: (marker name, heat flux)
MARKER_HEATFLUX= ( rectangle, 0.0 )

% Farfield boundary marker(s)
% Format: (marker name, static pressure, Mach number, flow_direction_x, flow_direction_y, flow_direction_z)
MARKER_FAR= ( farfield, 0.0, 0.0, 1.0, 0.0, 0.0 )

% ---------------------- Numerical Method Parameters ------------------------%
%
% Spatial numerical scheme (upwind, central, etc.)
NUM_METHOD_FLOW= UPWIND

% Courant-Friedrichs-Lewy number
CFL_NUMBER= 1.5

% Convergence criteria (residual-based)
CONV_CRITERIA= RESIDUAL

% Residual reduction for convergence
RESIDUAL_REDUCTION= 1e-6

% Maximum number of iterations
MAX_ITER= 10000

% ---------------------- Linear Solver Parameters ---------------------------%
%
% Linear solver for implicit formulations (FGMRES, BCGSTAB, etc.)
LINEAR_SOLVER= FGMRES

% Preconditioner type (ILU, LU_SGS, etc.)
PRECONDITIONER_FLOW= ILU

% ---------------------- Unsteady Simulation Parameters ---------------------%
%
% Unsteady simulation (NO, TIME_STEPPING, DUAL_TIME_STEPPING-1ST_ORDER, DUAL_TIME_STEPPING-2ND_ORDER)
UNSTEADY_SIMULATION= NO

% Time step size for unsteady simulations (s)
UNST_TIMESTEP= 1.0e-3

% Total physical time for unsteady simulations (s)
UNST_TIME= 1.0

% Number of internal iterations for dual time stepping
UNST_INT_ITER= 20
